[TITLE]
;; Medium-sized EPANET network for RL pressure & tank-level control
;; Created: 2025-06-08

[OPTIONS]
FLOW_UNITS         LPS
HEADLOSS           H-W
SPEC_GRAVITY       1.0
VISCOSITY          1.0
TOLERANCE          0.001

[REPORT]
STATUS              YES
SUMMARY             YES
DEMANDS             NO

[JUNCTIONS]
;ID     Elevation  BaseDemand  Pattern
J1      100        1.5         P1
J2      98         1.0         P1
J3      96         2.0         P2
J4      95         1.2         P2
J5      93         1.8         P2
J6      92         1.0         P1
J7      90         1.6         P3
J8      89         2.2         P3
J9      88         1.4         P3
J10     87         1.0         P1
J11     86         1.7         P2
J12     85         2.0         P2
J13     84         1.3         P3
J14     83         1.9         P3
J15     82         1.1         P1
J16     81         1.5         P1
J17     80         2.1         P2
J18     79         1.4         P2
J19     78         1.2         P3
J20     77         1.8         P3

[RESERVOIRS]
;ID     Head
R1      120

[TANKS]
;ID     Elevation  InitLevel  MinLevel  MaxLevel  Diameter  MinVol
T1      110        5          2         8         20        0

[PIPES]
;ID     Node1  Node2  Length  Diameter  Roughness  MinorLoss  Status
P1      T1     J1      250    150       100        0.0        Open  
P2      J1     J2      300    150       100        0.0        Open  
P3      J2     J3      300    150       100        0.0        Open  
P4      J3     J4      300    150       100        0.0        Open  
P5      J4     J5      300    150       100        0.0        Open  
P6      J5     J6      300    150       100        0.0        Open  
P7      J6     J7      300    150       100        0.0        Open  
P8      J7     J8      300    150       100        0.0        Open  
P9      J8     J9      300    150       100        0.0        Open  
P10     J9     J10     300    150       100        0.0        Open  
P11     J10    J11     300    150       100        0.0        Open  
P12     J11    J12     300    150       100        0.0        Open  
P13     J12    J13     300    150       100        0.0        Open  
P14     J13    J14     300    150       100        0.0        Open  
P15     J14    J15     300    150       100        0.0        Open  
P16     J15    J16     300    150       100        0.0        Open  
P17     J16    J17     300    150       100        0.0        Open  
P18     J17    J18     300    150       100        0.0        Open  
P19     J18    J19     300    150       100        0.0        Open  
P20     J19    J20     300    150       100        0.0        Open  

;; حلقه‌های فرعی
P21     J5     J10     500    100       100        0.0        Open  
P22     J10    J15     500    100       100        0.0        Open  
P23     J15    J20     500    100       100        0.0        Open  
P24     J3     J8      400    100       100        0.0        Open  
P25     J6     J12     600    100       100        0.0        Open  

;; شاخه‌های جانبی
P26     J2     J7      400    80        100        0.0        Open  
P27     J9     J14     400    80        100        0.0        Open  
P28     J13    J18     400    80        100        0.0        Open  

[PUMPS]
;ID     Node1  Node2  Head     Pattern
PU1     R1     T1     60       PUMP1

[VALVES]
;ID     Node1  Node2  Diameter  Type  Setting  MinorLoss
PRV1    J5     J6     150       PRV   45       0.0  
PRV2    J8     J9     150       PRV   40       0.0  
PRV3    J12    J13    150       PRV   50       0.0  
PRV4    J16    J17    150       PRV   42       0.0  

[PATTERNS]
;ID      Multipliers (24 hours)
P1       1.0 1.0 1.1 1.2 1.3 1.2 1.1 1.0 1.0 1.0 1.1 1.2 1.3 1.4 1.4 1.3 1.2 1.1 1.0 1.0 1.0 1.0 1.0 1.0  
P2       1.2 1.2 1.3 1.4 1.5 1.4 1.3 1.2 1.2 1.2 1.3 1.4 1.5 1.6 1.6 1.5 1.4 1.3 1.2 1.2 1.2 1.2 1.2 1.2  
P3       0.8 0.8 0.9 1.0 1.1 1.0 0.9 0.8 0.8 0.8 0.9 1.0 1.1 1.2 1.2 1.1 1.0 0.9 0.8 0.8 0.8 0.8 0.8 0.8  
PUMP1    0   1   0   1   0   1   0   1   0   1   0   1   0   1   0   1   0   1   0   1   0   1   0   1  

[COORDINATES]
;ID     X-Coord  Y-Coord
R1      0        0
PU1     100      0
T1      200      0
J1      400      100
J2      700      150
J3      1000     200
J4      1300     250
J5      1600     300
J6      1900     350
J7      700      -100
J8      1000     -150
J9      1300     -200
J10     1600     -250
J11     1900     -300
J12     1000     400
J13     1300     450
J14     1600     500
J15     1900     550
J16     400      -350
J17     700      -400
J18     1000     -450
J19     1300     -500
J20     1600     -550

[END]
