[TITLE]
;; Example Complex Water Network

[JUNCTIONS]
;;ID Elevation Demand Pattern
J1         103.26     1.25       DPat
J2         84.07      1.84       DPat
J3         136.77     0.47       DPat
J4         133.17     0.43       DPat
J5         118.63     1.32       DPat
J6         90.74      1.77       DPat
J7         141.13     0.68       DPat
J8         117.0      0.85       DPat
J9         81.98      1.56       DPat
J10        146.86     1.1        DPat
J11        97.12      1.46       DPat
J12        126.7      0.55       DPat
J13        72.31      1.86       DPat
J14        148.59     0.15       DPat
J15        121.94     1.03       DPat
J16        139.88     1.93       DPat
J17        138.86     0.87       DPat
J18        63.01      1.94       DPat
J19        113.83     0.68       DPat
J20        109.0      1.64       DPat
J21        64.0       1.22       DPat
J22        143.93     0.38       DPat
J23        53.37      1.49       DPat
J24        60.27      1.01       DPat
J25        104.15     0.74       DPat
J26        60.14      1.47       DPat
J27        136.68     1.92       DPat
J28        131.84     1.91       DPat
J29        148.23     0.48       DPat
J30        90.56      1.39       DPat
J31        112.84     1.03       DPat
J32        143.34     1.98       DPat
J33        124.83     1.32       DPat
J34        72.59      1.4        DPat
J35        87.3       0.33       DPat
J36        141.81     1.21       DPat
J37        104.0      1.52       DPat
J38        132.46     1.06       DPat
J39        97.02      1.29       DPat
J40        88.52      1.07       DPat
J41        72.77      0.59       DPat
J42        139.8      1.22       DPat
J43        133.02     1.77       DPat
J44        124.83     1.74       DPat
J45        91.63      0.88       DPat
J46        84.93      0.71       DPat
J47        64.05      1.82       DPat
J48        103.56     1.23       DPat
J49        91.04      1.81       DPat
J50        61.72      1.44       DPat
J51        123.42     0.62       DPat
J52        147.7      0.46       DPat
J53        144.76     1.33       DPat
J54        112.56     0.44       DPat
J55        111.48     0.57       DPat
J56        146.28     1.78       DPat
J57        149.32     1.32       DPat
J58        133.59     0.64       DPat
J59        82.94      1.85       DPat
J60        93.21      1.58       DPat
J61        120.41     0.85       DPat
J62        95.29      1.44       DPat
J63        117.57     0.57       DPat
J64        120.28     1.22       DPat
J65        144.64     1.36       DPat
J66        126.71     1.75       DPat
J67        141.31     0.36       DPat
J68        113.45     0.14       DPat
J69        120.16     1.33       DPat
J70        127.21     1.92       DPat
J71        93.94      1.83       DPat
J72        69.99      0.99       DPat
J73        136.27     1.84       DPat
J74        84.54      1.17       DPat
J75        134.43     0.34       DPat
J76        137.18     1.22       DPat
J77        121.47     1.05       DPat
J78        110.52     0.21       DPat
J79        117.66     1.35       DPat
J80        69.14      1.16       DPat
J81        119.81     1.47       DPat
J82        70.07      0.37       DPat
J83        85.08      1.05       DPat
J84        130.04     0.52       DPat
J85        83.47      0.24       DPat
J86        139.77     1.32       DPat
J87        116.59     1.22       DPat
J88        50.71      0.9        DPat
J89        70.88      1.66       DPat
J90        81.07      1.96       DPat
J91        65.09      0.56       DPat
J92        94.61      0.18       DPat
J93        92.46      0.51       DPat
J94        130.13     0.11       DPat
J95        91.53      0.77       DPat
J96        87.78      1.16       DPat
J97        82.27      1.77       DPat
J98        90.39      1.34       DPat
J99        148.59     0.32       DPat
J100       121.3      1.42       DPat
J101       147.59     0.66       DPat
J102       141.86     0.25       DPat
J103       129.06     0.8        DPat
J104       142.0      1.44       DPat
J105       57.28      1.44       DPat
J106       94.72      0.68       DPat
J107       83.92      1.38       DPat
J108       106.39     0.47       DPat
J109       66.52      1.47       DPat
J110       86.89      0.2        DPat
J111       103.67     0.16       DPat
J112       121.93     1.38       DPat
J113       117.98     1.52       DPat
J114       142.95     0.24       DPat
J115       142.39     1.55       DPat
J116       120.78     0.21       DPat
J117       131.88     1.21       DPat
J118       134.18     1.83       DPat
J119       91.17      1.84       DPat
J120       125.37     0.77       DPat
J121       122.39     1.75       DPat
J122       124.69     1.97       DPat
J123       111.89     1.2        DPat
J124       52.05      0.7        DPat
J125       146.81     0.95       DPat
J126       61.5       0.75       DPat
J127       115.8      0.66       DPat
J128       71.44      0.82       DPat
J129       103.67     1.84       DPat
J130       134.44     0.22       DPat
J131       134.87     1.97       DPat
J132       142.67     0.73       DPat
J133       140.03     1.77       DPat
J134       103.48     0.54       DPat
J135       107.79     1.02       DPat
J136       108.33     0.94       DPat
J137       52.34      0.45       DPat
J138       84.87      1.45       DPat
J139       100.18     1.94       DPat
J140       62.5       1.09       DPat
J141       102.1      0.36       DPat
J142       55.98      0.51       DPat
J143       146.11     0.8        DPat
J144       56.49      1.8        DPat
J145       135.31     1.45       DPat
J146       66.77      0.73       DPat
J147       104.78     0.68       DPat
J148       143.23     1.99       DPat
J149       128.54     1.01       DPat
J150       83.3       1.65       DPat
J151       141.49     1.27       DPat
J152       74.32      0.78       DPat
J153       54.74      1.7        DPat
J154       90.59      0.96       DPat
J155       124.92     0.15       DPat
J156       123.58     1.74       DPat
J157       51.28      1.7        DPat
J158       102.76     0.72       DPat
J159       64.6       1.75       DPat
J160       143.14     0.85       DPat
J161       58.02      0.64       DPat
J162       71.83      0.27       DPat
J163       52.54      1.09       DPat
J164       143.96     0.68       DPat
J165       116.6      1.45       DPat
J166       133.14     1.8        DPat
J167       78.57      1.66       DPat
J168       126.14     1.92       DPat
J169       145.89     0.54       DPat
J170       77.28      1.54       DPat
J171       94.08      0.42       DPat
J172       52.06      1.99       DPat
J173       144.9      1.35       DPat
J174       126.66     0.72       DPat
J175       81.82      1.72       DPat
J176       121.63     0.61       DPat
J177       60.03      1.38       DPat
J178       129.97     1.94       DPat
J179       130.01     1.21       DPat
J180       80.76      0.75       DPat
J181       111.36     1.9        DPat
J182       140.11     1.07       DPat
J183       120.76     0.25       DPat
J184       96.5       0.77       DPat
J185       64.93      0.38       DPat
J186       60.85      0.3        DPat
J187       73.08      0.79       DPat
J188       75.2       0.17       DPat
J189       64.55      0.29       DPat
J190       56.52      0.72       DPat
J191       121.0      1.5        DPat
J192       149.73     0.35       DPat
J193       97.46      1.81       DPat
J194       63.33      1.93       DPat
J195       131.58     0.93       DPat
J196       142.41     1.35       DPat
J197       146.27     0.62       DPat
J198       89.84      0.29       DPat
J199       68.21      0.8        DPat
J200       57.75      0.45       DPat
J201       90.93      1.77       DPat
J202       149.04     0.47       DPat
J203       73.93      0.57       DPat
J204       125.84     1.81       DPat
J205       142.88     1.14       DPat
J206       144.73     1.08       DPat
J207       57.2       0.94       DPat
J208       54.41      1.05       DPat
J209       139.23     1.8        DPat
J210       57.02      1.44       DPat
J211       63.33      1.17       DPat
J212       139.21     1.43       DPat
J213       147.39     1.76       DPat
J214       144.42     1.69       DPat
J215       68.89      0.54       DPat
J216       127.98     0.34       DPat
J217       71.77      1.76       DPat
J218       62.52      0.32       DPat
J219       127.78     1.13       DPat
J220       100.58     1.44       DPat
J221       82.92      1.99       DPat
J222       94.44      1.28       DPat
J223       79.43      1.33       DPat
J224       101.62     0.12       DPat
J225       80.91      0.68       DPat
J226       102.39     1.48       DPat
J227       51.31      0.67       DPat
J228       67.23      1.12       DPat
J229       64.12      1.57       DPat
J230       107.9      1.7        DPat
J231       51.64      1.13       DPat
J232       109.04     0.75       DPat
J233       84.86      1.95       DPat
J234       122.59     0.63       DPat
J235       97.68      1.67       DPat
J236       121.5      1.23       DPat
J237       135.95     0.68       DPat
J238       114.47     0.73       DPat
J239       134.02     1.58       DPat
J240       87.49      1.7        DPat
J241       108.2      0.38       DPat
J242       109.66     0.89       DPat
J243       60.52      0.98       DPat
J244       147.38     1.72       DPat
J245       95.25      0.85       DPat
J246       52.97      0.67       DPat
J247       116.84     1.42       DPat
J248       64.88      1.54       DPat
J249       129.79     1.64       DPat
J250       112.87     0.27       DPat
J251       71.78      0.14       DPat
J252       100.4      1.41       DPat
J253       122.28     0.85       DPat
J254       61.32      0.14       DPat
J255       122.34     1.26       DPat
J256       87.89      1.26       DPat
J257       123.44     1.92       DPat
J258       131.45     0.64       DPat
J259       143.08     1.32       DPat
J260       112.17     0.86       DPat
J261       94.02      0.83       DPat
J262       62.99      0.72       DPat
J263       65.24      1.32       DPat
J264       118.24     0.48       DPat
J265       64.62      1.54       DPat
J266       139.52     0.79       DPat
J267       50.29      1.74       DPat
J268       70.18      0.72       DPat
J269       53.42      1.44       DPat
J270       77.4       0.82       DPat
J271       143.48     1.65       DPat
J272       71.94      0.33       DPat
J273       109.99     1.61       DPat
J274       85.95      1.88       DPat
J275       89.73      0.98       DPat
J276       84.91      0.45       DPat
J277       56.51      1.79       DPat
J278       120.0      1.26       DPat
J279       101.71     0.63       DPat
J280       143.34     0.95       DPat
J281       108.34     1.02       DPat
J282       145.71     0.38       DPat
J283       67.35      1.62       DPat
J284       58.93      1.45       DPat
J285       75.42      0.34       DPat
J286       117.52     0.76       DPat
J287       56.46      1.63       DPat
J288       113.82     1.69       DPat
J289       122.11     1.25       DPat
J290       65.16      0.69       DPat
J291       92.46      1.53       DPat
J292       53.2       1.29       DPat
J293       107.19     1.17       DPat
J294       115.66     1.33       DPat
J295       133.55     0.15       DPat
J296       145.6      0.24       DPat
J297       82.36      1.46       DPat
J298       66.15      1.28       DPat
J299       55.67      0.73       DPat
J300       144.21     1.31       DPat
J301       91.02      0.65       DPat
J302       133.82     0.94       DPat
J303       92.04      0.35       DPat
J304       71.91      0.6        DPat
J305       134.87     0.41       DPat
J306       79.98      0.87       DPat
J307       126.29     1.4        DPat
J308       113.44     0.39       DPat
J309       141.98     1.58       DPat
J310       141.85     0.32       DPat
J311       89.15      1.9        DPat
J312       100.6      0.41       DPat
J313       149.74     1.45       DPat
J314       111.42     1.45       DPat
J315       135.79     0.93       DPat
J316       50.18      0.47       DPat
J317       137.6      1.61       DPat
J318       101.63     1.34       DPat
J319       96.24      0.33       DPat
J320       78.17      0.91       DPat
J321       61.67      0.17       DPat
J322       50.45      0.54       DPat
J323       104.17     1.92       DPat
J324       82.0       0.24       DPat
J325       145.85     1.83       DPat
J326       74.41      0.24       DPat
J327       145.16     1.28       DPat
J328       112.37     1.36       DPat
J329       56.98      1.71       DPat
J330       61.25      0.91       DPat
J331       107.41     1.01       DPat
J332       131.0      0.93       DPat
J333       69.27      1.87       DPat
J334       124.84     0.88       DPat
J335       74.36      0.58       DPat
J336       122.57     0.56       DPat
J337       114.53     1.74       DPat
J338       69.26      0.46       DPat
J339       117.24     1.46       DPat
J340       74.87      1.27       DPat
J341       113.11     0.16       DPat
J342       133.51     1.77       DPat
J343       78.2       1.78       DPat
J344       82.29      1.97       DPat
J345       74.59      1.02       DPat
J346       54.76      1.7        DPat
J347       71.36      1.17       DPat
J348       123.33     1.7        DPat
J349       70.71      1.69       DPat
J350       83.87      0.95       DPat
J351       140.73     1.45       DPat
J352       94.57      0.4        DPat
J353       143.64     0.39       DPat
J354       124.93     0.49       DPat
J355       111.71     0.59       DPat
J356       54.02      1.25       DPat
J357       103.49     0.6        DPat
J358       105.02     1.93       DPat
J359       105.59     0.54       DPat
J360       102.89     0.82       DPat
J361       67.09      0.12       DPat
J362       129.94     0.89       DPat
J363       130.98     0.21       DPat
J364       104.11     0.54       DPat
J365       116.59     1.26       DPat
J366       61.24      0.29       DPat
J367       144.97     0.38       DPat
J368       71.44      1.36       DPat
J369       72.98      1.66       DPat
J370       91.49      1.5        DPat
J371       70.19      0.47       DPat
J372       147.61     0.2        DPat
J373       96.06      0.95       DPat
J374       99.99      0.86       DPat
J375       94.91      1.78       DPat
J376       55.93      0.63       DPat
J377       89.97      1.26       DPat
J378       145.75     1.0        DPat
J379       115.35     1.89       DPat
J380       112.85     0.86       DPat
J381       65.9       0.48       DPat
J382       124.99     1.91       DPat
J383       77.62      0.14       DPat
J384       92.91      1.08       DPat
J385       112.97     0.4        DPat
J386       132.9      1.31       DPat
J387       93.22      0.22       DPat
J388       133.16     0.25       DPat
J389       140.36     1.91       DPat
J390       121.73     1.87       DPat
J391       106.62     1.57       DPat
J392       78.29      1.17       DPat
J393       75.12      1.87       DPat
J394       52.3       0.9        DPat
J395       114.14     1.02       DPat
J396       83.64      1.06       DPat
J397       112.23     1.31       DPat
J398       94.97      0.93       DPat
J399       97.9       1.1        DPat
J400       84.11      1.17       DPat
J401       107.9      1.74       DPat
J402       54.06      1.46       DPat
J403       69.91      0.85       DPat
J404       76.71      0.73       DPat
J405       115.72     0.47       DPat
J406       55.91      1.57       DPat
J407       117.5      0.98       DPat
J408       84.27      0.72       DPat
J409       75.99      1.0        DPat
J410       79.16      0.36       DPat
J411       144.82     0.32       DPat
J412       128.16     1.2        DPat
J413       122.27     1.46       DPat
J414       112.7      0.95       DPat
J415       69.75      1.4        DPat
J416       132.83     0.97       DPat
J417       148.55     1.29       DPat
J418       110.44     0.49       DPat
J419       128.79     0.13       DPat
J420       136.77     0.18       DPat
J421       97.84      0.72       DPat
J422       115.75     0.64       DPat
J423       86.63      0.63       DPat
J424       149.97     1.11       DPat
J425       131.2      0.53       DPat
J426       113.0      0.62       DPat
J427       81.01      1.59       DPat
J428       109.62     0.52       DPat
J429       135.35     1.19       DPat
J430       103.68     1.47       DPat
J431       62.87      0.32       DPat
J432       117.32     0.12       DPat
J433       69.08      1.13       DPat
J434       141.88     1.81       DPat
J435       119.85     1.3        DPat
J436       51.45      1.27       DPat
J437       74.26      1.27       DPat
J438       70.68      1.19       DPat
J439       81.19      1.12       DPat
J440       147.63     0.63       DPat
J441       93.99      1.17       DPat
J442       100.95     0.69       DPat
J443       101.84     1.46       DPat
J444       89.8       0.98       DPat
J445       107.03     0.97       DPat
J446       80.43      0.97       DPat
J447       146.27     1.68       DPat
J448       123.7      1.87       DPat
J449       136.97     0.67       DPat
J450       142.25     1.39       DPat
J451       97.05      1.45       DPat
J452       89.12      1.13       DPat
J453       139.37     1.45       DPat
J454       77.72      0.26       DPat
J455       59.39      0.25       DPat
J456       55.84      1.79       DPat
J457       99.63      0.66       DPat
J458       121.68     1.55       DPat
J459       127.68     1.98       DPat
J460       109.82     0.32       DPat
J461       121.16     1.63       DPat
J462       98.74      1.6        DPat
J463       53.95      0.59       DPat
J464       131.41     0.86       DPat
J465       69.66      0.91       DPat
J466       72.67      1.25       DPat
J467       105.52     0.21       DPat
J468       111.64     1.2        DPat
J469       134.22     1.99       DPat
J470       143.09     1.9        DPat
J471       53.67      1.4        DPat
J472       98.16      0.84       DPat
J473       97.22      1.52       DPat
J474       63.86      1.72       DPat
J475       83.33      0.24       DPat
J476       149.94     1.14       DPat
J477       75.86      0.77       DPat
J478       103.85     1.82       DPat
J479       145.44     1.09       DPat
J480       134.5      0.45       DPat
J481       141.2      1.98       DPat
J482       64.44      0.19       DPat
J483       95.34      0.63       DPat
J484       131.66     0.32       DPat
J485       101.03     1.97       DPat
J486       111.22     1.4        DPat
J487       112.2      1.16       DPat
J488       126.79     1.87       DPat
J489       81.54      1.78       DPat
J490       99.7       1.8        DPat
J491       81.16      1.31       DPat
J492       67.7       1.38       DPat
J493       69.54      0.47       DPat
J494       111.75     1.75       DPat
J495       114.37     0.29       DPat
J496       134.16     1.61       DPat
J497       75.94      1.46       DPat
J498       62.51      1.89       DPat
J499       84.43      0.72       DPat
J500       139.33     1.07       DPat

[RESERVOIRS]
;;ID Head
R1         135.54
R2         134.79

[TANKS]
;;ID Elevation InitLevel MinLevel MaxLevel Diameter MinVol
T1         94.25      10.02      89.25      114.25     17.17      150.22
T2         58.53      12.23      53.53      78.53      14.09      139.69
T3         79.74      11.96      74.74      99.74      11.59      78.31
T4         95.41      8.2        90.41      115.41     10.93      96.05
T5         69.12      12.15      64.12      89.12      13.69      127.82
T6         72.06      5.84       67.06      92.06      17.01      102.14
T7         90.18      14.42      85.18      110.18     15.62      73.68
T8         48.23      8.29       43.23      68.22999999999999 10.23      90.7

[PIPES]
;;ID Node1 Node2 Length Diameter Roughness MinorLoss
P1         J479  J417  746      150      81.71      0
P2         J262  J64   152      100      111.85     0
P3         J46   J248  654      200      104.81     0
P4         J120  J298  813      100      84.59      0
P5         J188  J455  655      250      97.76      0
P6         J193  J231  321      200      107.63     0
P7         J427  J215  268      100      115.9      0
P8         J235  J190  223      150      117.24     0
P9         J269  J436  480      250      115.1      0
P10        J68   J321  585      150      104.37     0
P11        J124  J438  403      100      108.8      0
P12        J327  J225  965      150      108.73     0
P13        J421  J278  988      150      85.94      0
P14        J76   J496  167      100      93.64      0
P15        J130  J378  442      200      80.91      0
P16        J155  J497  250      200      114.61     0
P17        J492  J16   898      200      98.77      0
P18        J453  J387  937      150      111.58     0
P19        J305  J225  933      150      114.15     0
P20        J447  J378  166      250      91.66      0
P21        J20   J38   390      200      84.3       0
P22        J352  J433  678      100      104.08     0
P23        J370  J354  218      250      90.02      0
P24        J345  J442  720      100      118.7      0
P25        J31   J441  914      150      87.4       0
P26        J300  J425  860      250      98.09      0
P27        J24   J27   344      250      115.85     0
P28        J439  J321  218      250      94.1       0
P29        J39   J271  165      250      82.51      0
P30        J51   J95   716      150      100.3      0
P31        J298  J184  390      150      105.6      0
P32        J347  J334  194      200      110.52     0
P33        J224  J27   571      150      88.86      0
P34        J221  J254  267      250      88.14      0
P35        J37   J272  543      200      118.91     0
P36        J88   J35   809      100      91.61      0
P37        J287  J78   945      100      107.88     0
P38        J62   J294  922      150      85.09      0
P39        J227  J316  998      250      88.1       0
P40        J2    J403  692      150      81.48      0
P41        J386  J112  390      200      115.04     0
P42        J482  J392  190      200      109.24     0
P43        J210  J382  617      250      87.97      0
P44        J243  J499  906      150      106.24     0
P45        J177  J7    150      250      83.16      0
P46        J161  J345  206      250      86.13      0
P47        J147  J281  969      200      86.78      0
P48        J441  J17   382      100      101.54     0
P49        J482  J94   876      100      109.43     0
P50        J220  J264  733      100      102.02     0
P51        J350  J69   150      150      89.58      0
P52        J429  J190  941      100      91.86      0
P53        J328  J255  133      150      87.08      0
P54        J33   J373  299      200      111.61     0
P55        J48   J130  160      100      95.68      0
P56        J228  J94   379      250      109.6      0
P57        J233  J171  203      250      119.6      0
P58        J334  J106  148      250      108.03     0
P59        J421  J315  209      200      96.41      0
P60        J177  J97   503      250      88.63      0
P61        J109  J37   844      150      86.98      0
P62        J469  J42   171      150      106.15     0
P63        J192  J442  905      100      106.39     0
P64        J146  J477  194      100      108.02     0
P65        J69   J311  491      100      113.55     0
P66        J454  J231  284      250      97.93      0
P67        J403  J211  221      150      106.95     0
P68        J6    J58   286      100      102.92     0
P69        J331  J186  803      250      82.11      0
P70        J134  J236  391      100      86.34      0
P71        J254  J55   146      200      81.46      0
P72        J340  J397  100      100      111.82     0
P73        J209  J225  653      150      109.55     0
P74        J487  J96   417      200      117.36     0
P75        J249  J348  559      150      100.91     0
P76        J305  J375  907      250      111.52     0
P77        J54   J277  814      250      95.86      0
P78        J30   J257  524      200      119.21     0
P79        J183  J124  681      200      110.67     0
P80        J368  J134  682      250      112.15     0
P81        J453  J65   735      150      100.23     0
P82        J197  J280  622      150      94.76      0
P83        J47   J384  832      250      98.22      0
P84        J203  J109  554      200      85.79      0
P85        J127  J209  745      200      116.26     0
P86        J318  J164  248      200      85.75      0
P87        J263  J439  302      100      119.66     0
P88        J262  J321  869      200      103.65     0
P89        J407  J143  551      100      89.81      0
P90        J371  J310  721      250      97.22      0
P91        J395  J274  476      200      100.94     0
P92        J484  J425  362      150      98.97      0
P93        J55   J373  572      200      106.09     0
P94        J28   J84   766      100      90.47      0
P95        J102  J407  376      100      113.92     0
P96        J82   J213  524      150      104.43     0
P97        J192  J313  650      150      86.53      0
P98        J44   J336  586      100      80.94      0
P99        J205  J215  240      250      110.65     0
P100       J269  J8    135      200      90.06      0
P101       J385  J190  627      150      92.04      0
P102       J262  J342  556      200      104.77     0
P103       J250  J223  730      150      113.63     0
P104       J262  J319  262      150      98.49      0
P105       J465  J147  177      100      114.02     0
P106       J388  J192  554      150      110.37     0
P107       J337  J74   857      100      86.8       0
P108       J500  J2    868      100      105.92     0
P109       J97   J44   554      200      116.67     0
P110       J75   J371  587      250      92.29      0
P111       J483  J398  418      100      105.55     0
P112       J459  J27   146      250      91.36      0
P113       J422  J370  639      150      84.37      0
P114       J477  J424  650      250      107.52     0
P115       J114  J219  395      150      116.0      0
P116       J215  J50   573      250      95.76      0
P117       J350  J445  589      150      94.22      0
P118       J22   J362  357      200      118.95     0
P119       J165  J389  663      200      90.85      0
P120       J5    J366  802      200      96.26      0
P121       J453  J227  649      250      100.61     0
P122       J220  J468  1000     200      105.51     0
P123       J52   J215  875      100      118.57     0
P124       J14   J153  830      250      88.84      0
P125       J240  J181  163      100      110.99     0
P126       J86   J342  862      100      101.1      0
P127       J250  J225  416      200      80.61      0
P128       J479  J355  645      250      109.89     0
P129       J296  J15   734      100      89.4       0
P130       J101  J480  932      250      117.65     0
P131       J287  J476  509      250      112.99     0
P132       J274  J387  971      100      113.39     0
P133       J281  J182  915      150      101.58     0
P134       J280  J69   313      250      81.88      0
P135       J44   J16   451      250      119.59     0
P136       J427  J1    703      250      101.46     0
P137       J153  J150  584      250      82.62      0
P138       J487  J113  646      100      80.47      0
P139       J249  J280  426      250      108.48     0
P140       J390  J139  299      150      95.93      0
P141       J187  J253  435      150      114.55     0
P142       J309  J20   591      200      118.06     0
P143       J444  J199  467      100      84.13      0
P144       J243  J62   140      250      101.55     0
P145       J357  J425  309      150      103.62     0
P146       J186  J192  366      250      86.74      0
P147       J233  J237  906      200      108.12     0
P148       J357  J139  371      150      90.68      0
P149       J460  J89   360      150      94.39      0
P150       J266  J51   164      150      92.31      0
P151       J314  J284  646      200      82.95      0
P152       J17   J182  470      100      108.68     0
P153       J173  J116  221      200      99.29      0
P154       J372  J102  377      100      103.19     0
P155       J156  J323  600      100      93.0       0
P156       J69   J356  742      150      90.02      0
P157       J91   J428  843      200      113.72     0
P158       J480  J1    100      100      115.57     0
P159       J95   J486  544      250      99.88      0
P160       J329  J484  531      150      119.95     0
P161       J296  J268  674      100      93.74      0
P162       J475  J345  238      100      113.57     0
P163       J50   J95   693      100      83.95      0
P164       J240  J394  284      200      95.21      0
P165       J129  J21   768      100      84.33      0
P166       J482  J365  403      200      89.77      0
P167       J420  J367  824      100      87.32      0
P168       J106  J394  578      200      85.73      0
P169       J287  J427  696      200      84.94      0
P170       J143  J260  844      250      100.89     0
P171       J30   J158  930      250      104.14     0
P172       J376  J371  514      100      113.05     0
P173       J279  J359  206      200      100.98     0
P174       J43   J51   458      100      111.82     0
P175       J406  J174  381      100      91.07      0
P176       J304  J82   635      100      94.61      0
P177       J438  J404  664      200      87.13      0
P178       J83   J193  239      200      88.78      0
P179       J49   J381  848      100      88.62      0
P180       J187  J67   934      250      81.58      0
P181       J247  J236  186      100      111.64     0
P182       J150  J360  704      250      85.65      0
P183       J355  J252  344      100      112.01     0
P184       J21   J27   482      150      81.84      0
P185       J464  J456  189      200      84.36      0
P186       J23   J39   876      200      115.91     0
P187       J387  J132  330      250      99.19      0