; Filename: /content/net1.inp
; WNTR: 1.3.2
; Created: 2025-08-14 22:17:41
[TITLE]

[JUNCTIONS]
;ID                      Elevation       Demand Pattern                 
 J1                               100               1 P1                         ;
 J2                                98               1 P1                         ;
 J3                                96               1 P1                         ;
 J4                                94               1 P1                         ;
 J5                                92               1 P1                         ;
 TEMP_NODE                        110               0                            ;

[RESERVOIRS]
;ID                                   Head                  Pattern
 R1                               120                            ;

[TANKS]
;ID                              Elevation           Init Level            Min Level            Max Level             Diameter           Min Volume Volume Curve         Overflow            

[PIPES]
;ID                   Node1                Node2                              Length             Diameter            Roughness           Minor Loss               Status
 P_R1_TEMP            R1                   TEMP_NODE                         10             150             100               0                 Open   ;
 P1_OLD               J1                   J2                               300             150             100               0                 Open   ;
 P2                   J1                   J2                               300             150             100               0                 Open   ;
 P3                   J2                   J3                               300             150             100               0                 Open   ;
 P4                   J3                   J4                               300             150             100               0                 Open   ;
 P5                   J4                   J5                               300             150             100               0                 Open   ;

[PUMPS]
;ID                   Node1                Node2                Properties          

[VALVES]
;ID                   Node1                Node2                            Diameter Type              Setting           Minor Loss
 PRV1                 TEMP_NODE            J1                               150 PRV     241.66994751               0   ;

[TAGS]
;type      name       tag       

[DEMANDS]
;ID        Demand     Pattern   

[STATUS]
;ID        Setting   

[PATTERNS]
;ID        Multipliers

P1 1.000000 1.000000 1.000000 1.000000 1.000000 1.000000
P1 1.000000 1.200000 1.500000 1.500000 1.200000 1.000000
P1 1.000000 1.000000 1.000000 1.000000 1.000000 1.200000
P1 1.500000 1.500000 1.200000 1.000000 1.000000 1.000000

[CURVES]
;ID         X-Value      Y-Value     

[CONTROLS]

[RULES]

[ENERGY]
GLOBAL EFFICIENCY      75.0000
GLOBAL PRICE           0.0000
DEMAND CHARGE          0.0000

[EMITTERS]
;ID        Flow coefficient

[QUALITY]

[SOURCES]
;Node      Type       Quality    Pattern   

[REACTIONS]
;Type           Pipe/Tank               Coefficient

 ORDER BULK 1
 ORDER TANK 1
 ORDER WALL 1
 GLOBAL BULK 0.0000    
 GLOBAL WALL 0.0000    
 LIMITING POTENTIAL 0.0000    
 ROUGHNESS CORRELATION 0.0000    

[MIXING]
;Tank ID             Model Fraction

[TIMES]
DURATION             01:00:00
HYDRAULIC TIMESTEP   01:00:00
QUALITY TIMESTEP     00:05:00
PATTERN TIMESTEP     01:00:00
PATTERN START        00:00:00
REPORT TIMESTEP      01:00:00
REPORT START         00:00:00
START CLOCKTIME      00:00:00 AM
RULE TIMESTEP        00:06:00
STATISTIC            NONE      

[REPORT]
STATUS     YES
SUMMARY    NO
PAGE       0

[OPTIONS]
UNITS                GPM                 
HEADLOSS             H-W                 
SPECIFIC GRAVITY     1
VISCOSITY            1
TRIALS               40
ACCURACY             0.001
CHECKFREQ            2
MAXCHECK             10
UNBALANCED           CONTINUE 10
DEMAND MULTIPLIER    1
EMITTER EXPONENT     0.5
QUALITY              NONE                
DIFFUSIVITY          1
TOLERANCE            0.001

[COORDINATES]
;Node      X-Coord    Y-Coord   
J1                500.000000000          0.000000000
J2                800.000000000          0.000000000
J3               1100.000000000          0.000000000
J4               1400.000000000          0.000000000
J5               1700.000000000          0.000000000
TEMP_NODE         250.000000000          0.000000000
R1                  0.000000000          0.000000000

[VERTICES]
;Link      X-Coord    Y-Coord   

[LABELS]

[BACKDROP]
DIMENSIONS    -85.000    -5.500    1785.000    5.500
UNITS    NONE
OFFSET    0.00    0.00

[END]
